!-Generator IDFEditor 1.44
!-Option SortedOrder

!-NOTE: All comments with '!-' are ignored by the IDFEditor and are generated automatically.
!-      Use '!' comments if they need to be retained when using the IDFEditor.


!-   ===========  ALL OBJECTS IN CLASS: VERSION ===========

! Generated by EPXMLPreproc2 (Windows 32 Version 0.1.2.32)
! Created on 12/16/2013 17:19:04
!***** This data and software ("Data") is provided by the National Renewable *****
!***** Energy Laboratory ("NREL"), which is operated by the Alliance for *****
!***** Sustainable Energy, LLC ("ALLIANCE") for the U.S. Department Of *****
!***** Energy ("DOE"). *****
!***** Access to and use of these Data shall impose the following obligations *****
!***** on the user, as set forth in this Agreement.  The user is granted the *****
!***** right, without any fee or cost, to use, copy, modify, alter, enhance *****
!***** and distribute these Data for any purpose whatsoever, provided that this *****
!***** entire notice appears in all copies of the Data.  Further, the user *****
!***** agrees to credit DOE/NREL/ALLIANCE in any publication that results from *****
!***** the use of these Data.  The names DOE/NREL/ALLIANCE, however, may not *****
!***** be used in any advertising or publicity to endorse or promote any products *****
!***** or commercial entities unless specific written permission is obtained from *****
!***** DOE/NREL/ ALLIANCE.  The user also understands that DOE/NREL/Alliance is *****
!***** not obligated to provide the user with any support, consulting, training *****
!***** or assistance of any kind with regard to the use of these Data or to *****
!***** provide the user with any updates, revisions or new versions of these Data. *****
!***** YOU AGREE TO INDEMNIFY DOE/NREL/Alliance, AND ITS SUBSIDIARIES, AFFILIATES, *****
!***** OFFICERS, AGENTS, AND EMPLOYEES AGAINST ANY CLAIM OR DEMAND, INCLUDING *****
!***** 'REASONABLE ATTORNEYS' FEES, RELATED TO YOUR USE OF THESE DATA.  THESE DATA *****
!***** ARE PROVIDED BY DOE/NREL/Alliance "AS IS" AND ANY EXPRESS OR IMPLIED *****
!***** WARRANTIES, INCLUDING BUT NOT LIMITED TO, THE IMPLIED WARRANTIES OF *****
!***** MERCHANTABILITY AND FITNESS FOR A PARTICULAR PURPOSE ARE DISCLAIMED.  IN *****
!***** NO EVENT SHALL DOE/NREL/ALLIANCE BE LIABLE FOR ANY SPECIAL, INDIRECT OR *****
!***** CONSEQUENTIAL DAMAGES OR ANY DAMAGES WHATSOEVER, INCLUDING BUT NOT LIMITED *****
!***** TO CLAIMS ASSOCIATED WITH THE LOSS OF DATA OR PROFITS, WHICH MAY RESULT *****
!***** FROM AN ACTION IN CONTRACT, NEGLIGENCE OR OTHER TORTIOUS CLAIM THAT *****
!***** ARISES OUT OF OR IN CONNECTION WITH THE ACCESS, USE OR PERFORMANCE OF *****
!***** THESE DATA. *****
! Building Description
! campus building 2
! Start SimMetaData
! WeatherFileName=USA_MI_Detroit-Metro.AP_TMY2.epw
! RoofConstruction=Insulation Entirely Above Deck
! ExtWallConstruction=Steel-Framed
! End SimMetaData
! Start WebInterface Parameters
! EMAIL_ADDRESS=ecosoop@gmail.com
! BUILDING_DESCRIPTION=campus building 2
! BUILDING_TYPE=Office/Professional
! CITY=DETROIT
! COUNTRY=USA
! ELECTRICAL_PLUG_INTENSITY_INPUT=SmartDefault
! ENERGYPLUSVERSION=8.1.0
! GAS_APPLIANCE_INTENSITY_INPUT=SmartDefault
! GEOCHG=false
! IDF_UPLOAD=0
! MODEL=Simple
! NUMBER_OF_FLOORS=4
! PEOPLE_DENSITY_INPUT=SmartDefault
! ROOF_TYPE_INPUT=SmartDefault
! STATE=MI
! TARGETED_STANDARD=ASHRAE 90.1-2004
! TOTAL_FLOOR_AREA=10337
! VERSION=8.1.0
! WALL_TYPE_INPUT=SmartDefault
! WEATHER_FILE=USA_MI_Detroit-Metro.AP_TMY2.epw
! WEATHER_FILE_KEY=USA_MI_DETROIT
! WEBINTERFACEVERSION=6.0
!
! End WebInterface Parameters
! Number of Zones: 15
Version,
    8.1.0;                   !- Version Identifier


!-   ===========  ALL OBJECTS IN CLASS: SIMULATIONCONTROL ===========

SimulationControl,
    Yes,                     !- Do Zone Sizing Calculation
    Yes,                     !- Do System Sizing Calculation
    Yes,                     !- Do Plant Sizing Calculation
    No,                      !- Run Simulation for Sizing Periods
    Yes;                     !- Run Simulation for Weather File Run Periods


!-   ===========  ALL OBJECTS IN CLASS: BUILDING ===========

Building,
    campus building,         !- Name
    0.0000,                  !- North Axis {deg}
    City,                    !- Terrain
    0.0400,                  !- Loads Convergence Tolerance Value
    0.2000,                  !- Temperature Convergence Tolerance Value {deltaC}
    FullInteriorAndExterior, !- Solar Distribution
    25,                      !- Maximum Number of Warmup Days
    6;                       !- Minimum Number of Warmup Days


!-   ===========  ALL OBJECTS IN CLASS: SHADOWCALCULATION ===========

ShadowCalculation,
    AverageOverDaysInFrequency,  !- Calculation Method
    30,                      !- Calculation Frequency
    15000;                   !- Maximum Figures in Shadow Overlap Calculations


!-   ===========  ALL OBJECTS IN CLASS: SURFACECONVECTIONALGORITHM:INSIDE ===========

SurfaceConvectionAlgorithm:Inside,
    TARP;                    !- Algorithm


!-   ===========  ALL OBJECTS IN CLASS: SURFACECONVECTIONALGORITHM:OUTSIDE ===========

SurfaceConvectionAlgorithm:Outside,
    DOE-2;                   !- Algorithm


!-   ===========  ALL OBJECTS IN CLASS: HEATBALANCEALGORITHM ===========

HeatBalanceAlgorithm,
    ConductionTransferFunction,  !- Algorithm
    200.0000;                !- Surface Temperature Upper Limit {C}


!-   ===========  ALL OBJECTS IN CLASS: ZONEAIRHEATBALANCEALGORITHM ===========

ZoneAirHeatBalanceAlgorithm,
    AnalyticalSolution;      !- Algorithm


!-   ===========  ALL OBJECTS IN CLASS: TIMESTEP ===========

Timestep,
    4;                       !- Number of Timesteps per Hour


!-   ===========  ALL OBJECTS IN CLASS: CONVERGENCELIMITS ===========

ConvergenceLimits,
    5,                       !- Minimum System Timestep {minutes}
    25;                      !- Maximum HVAC Iterations


!-   ===========  ALL OBJECTS IN CLASS: SITE:LOCATION ===========

Site:Location,
    USA MI-ANN ARBOR,        !- Name
    42.16,                   !- Latitude {deg}
    -83.44,                  !- Longitude {deg}
    -5,                      !- Time Zone {hr}
    256;                     !- Elevation {m}


!-   ===========  ALL OBJECTS IN CLASS: SIZINGPERIOD:DESIGNDAY ===========

! DETROIT_MI_USA Annual Heating 99.6%, MaxDB=-17.7°C
SizingPeriod:DesignDay,
    DETROIT Ann Htg 99.6% Condns DB,  !- Name
    1,                       !- Month
    21,                      !- Day of Month
    WinterDesignDay,         !- Day Type
    -17.7,                   !- Maximum Dry-Bulb Temperature {C}
    0.0,                     !- Daily Dry-Bulb Temperature Range {deltaC}
    ,                        !- Dry-Bulb Temperature Range Modifier Type
    ,                        !- Dry-Bulb Temperature Range Modifier Day Schedule Name
    Wetbulb,                 !- Humidity Condition Type
    -17.7,                   !- Wetbulb or DewPoint at Maximum Dry-Bulb {C}
    ,                        !- Humidity Condition Day Schedule Name
    ,                        !- Humidity Ratio at Maximum Dry-Bulb {kgWater/kgDryAir}
    ,                        !- Enthalpy at Maximum Dry-Bulb {J/kg}
    ,                        !- Daily Wet-Bulb Temperature Range {deltaC}
    99051.,                  !- Barometric Pressure {Pa}
    5,                       !- Wind Speed {m/s}
    240,                     !- Wind Direction {deg}
    No,                      !- Rain Indicator
    No,                      !- Snow Indicator
    No,                      !- Daylight Saving Time Indicator
    ASHRAEClearSky,          !- Solar Model Indicator
    ,                        !- Beam Solar Day Schedule Name
    ,                        !- Diffuse Solar Day Schedule Name
    ,                        !- ASHRAE Clear Sky Optical Depth for Beam Irradiance (taub) {dimensionless}
    ,                        !- ASHRAE Clear Sky Optical Depth for Diffuse Irradiance (taud) {dimensionless}
    0.00;                    !- Sky Clearness

! DETROIT_MI_USA Annual Cooling (DB=>MWB) .4%, MaxDB=32.3°C MWB=23.2°C
SizingPeriod:DesignDay,
    DETROIT Ann Clg .4% Condns DB=>MWB,  !- Name
    7,                       !- Month
    21,                      !- Day of Month
    SummerDesignDay,         !- Day Type
    32.3,                    !- Maximum Dry-Bulb Temperature {C}
    10.9,                    !- Daily Dry-Bulb Temperature Range {deltaC}
    ,                        !- Dry-Bulb Temperature Range Modifier Type
    ,                        !- Dry-Bulb Temperature Range Modifier Day Schedule Name
    Wetbulb,                 !- Humidity Condition Type
    23.2,                    !- Wetbulb or DewPoint at Maximum Dry-Bulb {C}
    ,                        !- Humidity Condition Day Schedule Name
    ,                        !- Humidity Ratio at Maximum Dry-Bulb {kgWater/kgDryAir}
    ,                        !- Enthalpy at Maximum Dry-Bulb {J/kg}
    ,                        !- Daily Wet-Bulb Temperature Range {deltaC}
    99051.,                  !- Barometric Pressure {Pa}
    6,                       !- Wind Speed {m/s}
    240,                     !- Wind Direction {deg}
    No,                      !- Rain Indicator
    No,                      !- Snow Indicator
    No,                      !- Daylight Saving Time Indicator
    ASHRAEClearSky,          !- Solar Model Indicator
    ,                        !- Beam Solar Day Schedule Name
    ,                        !- Diffuse Solar Day Schedule Name
    ,                        !- ASHRAE Clear Sky Optical Depth for Beam Irradiance (taub) {dimensionless}
    ,                        !- ASHRAE Clear Sky Optical Depth for Diffuse Irradiance (taud) {dimensionless}
    1.00;                    !- Sky Clearness

! DETROIT_MI_USA Annual Cooling (WB=>MDB) .4%, MDB=30.3°C WB=24.8°C
SizingPeriod:DesignDay,
    DETROIT Ann Clg .4% Condns WB=>MDB,  !- Name
    7,                       !- Month
    21,                      !- Day of Month
    SummerDesignDay,         !- Day Type
    30.3,                    !- Maximum Dry-Bulb Temperature {C}
    10.9,                    !- Daily Dry-Bulb Temperature Range {deltaC}
    ,                        !- Dry-Bulb Temperature Range Modifier Type
    ,                        !- Dry-Bulb Temperature Range Modifier Day Schedule Name
    Wetbulb,                 !- Humidity Condition Type
    24.8,                    !- Wetbulb or DewPoint at Maximum Dry-Bulb {C}
    ,                        !- Humidity Condition Day Schedule Name
    ,                        !- Humidity Ratio at Maximum Dry-Bulb {kgWater/kgDryAir}
    ,                        !- Enthalpy at Maximum Dry-Bulb {J/kg}
    ,                        !- Daily Wet-Bulb Temperature Range {deltaC}
    99051.,                  !- Barometric Pressure {Pa}
    6,                       !- Wind Speed {m/s}
    240,                     !- Wind Direction {deg}
    No,                      !- Rain Indicator
    No,                      !- Snow Indicator
    No,                      !- Daylight Saving Time Indicator
    ASHRAEClearSky,          !- Solar Model Indicator
    ,                        !- Beam Solar Day Schedule Name
    ,                        !- Diffuse Solar Day Schedule Name
    ,                        !- ASHRAE Clear Sky Optical Depth for Beam Irradiance (taub) {dimensionless}
    ,                        !- ASHRAE Clear Sky Optical Depth for Diffuse Irradiance (taud) {dimensionless}
    1.00;                    !- Sky Clearness


!-   ===========  ALL OBJECTS IN CLASS: RUNPERIOD ===========

RunPeriod,
    ,                        !- Name
    1,                       !- Begin Month
    1,                       !- Begin Day of Month
    12,                      !- End Month
    31,                      !- End Day of Month
    Sunday,                  !- Day of Week for Start Day
    No,                      !- Use Weather File Holidays and Special Days
    No,                      !- Use Weather File Daylight Saving Period
    No,                      !- Apply Weekend Holiday Rule
    Yes,                     !- Use Weather File Rain Indicators
    Yes,                     !- Use Weather File Snow Indicators
    1.0000,                  !- Number of Times Runperiod to be Repeated
    Yes,                     !- Increment Day of Week on repeat
    2012;                    !- Start Year


!-   ===========  ALL OBJECTS IN CLASS: RUNPERIODCONTROL:SPECIALDAYS ===========

! US National Holidays
RunPeriodControl:SpecialDays,
    New Years Day,           !- Name
    January 1,               !- Start Date
    1,                       !- Duration {days}
    Holiday;                 !- Special Day Type

RunPeriodControl:SpecialDays,
    Veterans Day,            !- Name
    November 11,             !- Start Date
    1,                       !- Duration {days}
    Holiday;                 !- Special Day Type

RunPeriodControl:SpecialDays,
    Christmas,               !- Name
    December 25,             !- Start Date
    1,                       !- Duration {days}
    Holiday;                 !- Special Day Type

RunPeriodControl:SpecialDays,
    Independence Day,        !- Name
    July 4,                  !- Start Date
    1,                       !- Duration {days}
    Holiday;                 !- Special Day Type

RunPeriodControl:SpecialDays,
    MLK Day,                 !- Name
    3rd Monday in January,   !- Start Date
    1,                       !- Duration {days}
    Holiday;                 !- Special Day Type

RunPeriodControl:SpecialDays,
    Presidents Day,          !- Name
    3rd Monday in February,  !- Start Date
    1,                       !- Duration {days}
    Holiday;                 !- Special Day Type

RunPeriodControl:SpecialDays,
    Memorial Day,            !- Name
    Last Monday in May,      !- Start Date
    1,                       !- Duration {days}
    Holiday;                 !- Special Day Type

RunPeriodControl:SpecialDays,
    Labor Day,               !- Name
    1st Monday in September, !- Start Date
    1,                       !- Duration {days}
    Holiday;                 !- Special Day Type

RunPeriodControl:SpecialDays,
    Columbus Day,            !- Name
    2nd Monday in October,   !- Start Date
    1,                       !- Duration {days}
    Holiday;                 !- Special Day Type

RunPeriodControl:SpecialDays,
    Thanksgiving,            !- Name
    4th Thursday in November,!- Start Date
    1,                       !- Duration {days}
    Holiday;                 !- Special Day Type


!-   ===========  ALL OBJECTS IN CLASS: RUNPERIODCONTROL:DAYLIGHTSAVINGTIME ===========

! Daylight Saving Period in US
RunPeriodControl:DaylightSavingTime,
    2nd Sunday in March,     !- Start Date
    1st Sunday in November;  !- End Date


!-   ===========  ALL OBJECTS IN CLASS: SITE:GROUNDTEMPERATURE:BUILDINGSURFACE ===========

Site:GroundTemperature:BuildingSurface,
    19.557,                  !- January Ground Temperature {C}
    19.516,                  !- February Ground Temperature {C}
    19.564,                  !- March Ground Temperature {C}
    19.610,                  !- April Ground Temperature {C}
    19.801,                  !- May Ground Temperature {C}
    21.715,                  !- June Ground Temperature {C}
    22.245,                  !- July Ground Temperature {C}
    22.077,                  !- August Ground Temperature {C}
    20.954,                  !- September Ground Temperature {C}
    20.018,                  !- October Ground Temperature {C}
    19.797,                  !- November Ground Temperature {C}
    19.645;                  !- December Ground Temperature {C}


!-   ===========  ALL OBJECTS IN CLASS: SITE:WATERMAINSTEMPERATURE ===========

Site:WaterMainsTemperature,
    CORRELATION,             !- Calculation Method
    ,                        !- Temperature Schedule Name
    9.00,                    !- Annual Average Outdoor Air Temperature {C}
    26.70;                   !- Maximum Difference In Monthly Average Outdoor Air Temperatures {deltaC}


!-   ===========  ALL OBJECTS IN CLASS: SCHEDULETYPELIMITS ===========

!***** Schedule Set *****
ScheduleTypeLimits,
    Any Number;              !- Name

ScheduleTypeLimits,
    Fraction,                !- Name
    0.0,                     !- Lower Limit Value
    1.0,                     !- Upper Limit Value
    CONTINUOUS;              !- Numeric Type

ScheduleTypeLimits,
    Temperature,             !- Name
    -60,                     !- Lower Limit Value
    200,                     !- Upper Limit Value
    CONTINUOUS;              !- Numeric Type

ScheduleTypeLimits,
    On/Off,                  !- Name
    0,                       !- Lower Limit Value
    1,                       !- Upper Limit Value
    DISCRETE;                !- Numeric Type

ScheduleTypeLimits,
    Control Type,            !- Name
    0,                       !- Lower Limit Value
    4,                       !- Upper Limit Value
    DISCRETE;                !- Numeric Type

ScheduleTypeLimits,
    Humidity,                !- Name
    10,                      !- Lower Limit Value
    90,                      !- Upper Limit Value
    CONTINUOUS;              !- Numeric Type

ScheduleTypeLimits,
    Number;                  !- Name


!-   ===========  ALL OBJECTS IN CLASS: SCHEDULE:COMPACT ===========

! Schedule set    Schedule_Office_ASHRAE_90.1-1989_TypTstatSetback[]
! Hours: Weekly: 92, Yearly: 4797
! Schedule Office Lighting,  ASHRAE 90.1-1989, Section 13 w/addenda
Schedule:Compact,
    BLDG_LIGHT_SCH,          !- Name
    Fraction,                !- Schedule Type Limits Name
    Through: 12/31,          !- Field 1
    For: Weekdays,           !- Field 2
    Until: 05:00,            !- Field 3
    .2,                      !- Field 4
    Until: 07:00,            !- Field 5
    .3,                      !- Field 6
    Until: 08:00,            !- Field 7
    .4,                      !- Field 8
    Until: 17:00,            !- Field 9
    0.9,                     !- Field 10
    Until: 18:00,            !- Field 11
    .7,                      !- Field 12
    Until: 20:00,            !- Field 13
    .5,                      !- Field 14
    Until: 22:00,            !- Field 15
    .3,                      !- Field 16
    Until: 23:00,            !- Field 17
    .2,                      !- Field 18
    Until: 24:00,            !- Field 19
    .2,                      !- Field 20
    For: SummerDesignDay,    !- Field 21
    Until: 24:00,            !- Field 22
    1.0,                     !- Field 23
    For: Saturday,           !- Field 24
    Until: 06:00,            !- Field 25
    .2,                      !- Field 26
    Until: 08:00,            !- Field 27
    .2,                      !- Field 28
    Until: 12:00,            !- Field 29
    .5,                      !- Field 30
    Until: 17:00,            !- Field 31
    .5,                      !- Field 32
    Until: 24:00,            !- Field 33
    .3,                      !- Field 34
    For: WinterDesignDay,    !- Field 35
    Until: 24:00,            !- Field 36
    0.0,                     !- Field 37
    For: Sunday Holidays AllOtherDays,  !- Field 38
    Until: 24:00,            !- Field 39
    .1;                      !- Field 40

! Schedule Office Receptacle,  ASHRAE 90.1-1989, Section 13
! MODIFIED for increased off-hours plug loads (to account for more IT equipment)
! Hours: Weekly: 86.15, Yearly: 4492
Schedule:Compact,
    BLDG_EQUIP_SCH,          !- Name
    Fraction,                !- Schedule Type Limits Name
    Through: 12/31,          !- Field 1
    For: Weekdays,           !- Field 2
    Until: 08:00,            !- Field 3
    .5,                      !- Field 4
    Until: 12:00,            !- Field 5
    0.90,                    !- Field 6
    Until: 13:00,            !- Field 7
    0.80,                    !- Field 8
    Until: 17:00,            !- Field 9
    0.90,                    !- Field 10
    Until: 18:00,            !- Field 11
    .6,                      !- Field 12
    Until: 24:00,            !- Field 13
    .5,                      !- Field 14
    For: SummerDesignDay,    !- Field 15
    Until: 24:00,            !- Field 16
    1.0,                     !- Field 17
    For: Saturday,           !- Field 18
    Until: 06:00,            !- Field 19
    .4,                      !- Field 20
    Until: 08:00,            !- Field 21
    .5,                      !- Field 22
    Until: 12:00,            !- Field 23
    .6,                      !- Field 24
    Until: 17:00,            !- Field 25
    .4,                      !- Field 26
    Until: 24:00,            !- Field 27
    0.30,                    !- Field 28
    For: WinterDesignDay,    !- Field 29
    Until: 24:00,            !- Field 30
    0.0,                     !- Field 31
    For: Sunday Holidays AllOtherDays,  !- Field 32
    Until: 24:00,            !- Field 33
    0.30;                    !- Field 34

! Schedule Office Occupancy,
Schedule:Compact,
    BLDG_OCC_SCH,            !- Name
    Fraction,                !- Schedule Type Limits Name
    Through: 12/31,          !- Field 1
    For: Weekdays,           !- Field 2
    Until: 06:00,            !- Field 3
    0.0,                     !- Field 4
    Until: 07:00,            !- Field 5
    .2,                      !- Field 6
    Until: 08:00,            !- Field 7
    .3,                      !- Field 8
    Until: 12:00,            !- Field 9
    0.95,                    !- Field 10
    Until: 13:00,            !- Field 11
    .6,                      !- Field 12
    Until: 17:00,            !- Field 13
    0.95,                    !- Field 14
    Until: 18:00,            !- Field 15
    .6,                      !- Field 16
    Until: 20:00,            !- Field 17
    .3,                      !- Field 18
    Until: 24:00,            !- Field 19
    .1,                      !- Field 20
    For: SummerDesignDay,    !- Field 21
    Until: 06:00,            !- Field 22
    0.0,                     !- Field 23
    Until: 22:00,            !- Field 24
    1.0,                     !- Field 25
    Until: 24:00,            !- Field 26
    0.05,                    !- Field 27
    For: Saturday,           !- Field 28
    Until: 06:00,            !- Field 29
    0.0,                     !- Field 30
    Until: 08:00,            !- Field 31
    0.1,                     !- Field 32
    Until: 12:00,            !- Field 33
    .4,                      !- Field 34
    Until: 17:00,            !- Field 35
    .3,                      !- Field 36
    Until: 19:00,            !- Field 37
    .2,                      !- Field 38
    Until: 24:00,            !- Field 39
    .1,                      !- Field 40
    For: WinterDesignDay,    !- Field 41
    Until: 24:00,            !- Field 42
    0.0,                     !- Field 43
    For: Sunday Holidays AllOtherDays,  !- Field 44
    Until: 06:00,            !- Field 45
    0.0,                     !- Field 46
    Until: 18:00,            !- Field 47
    .2,                      !- Field 48
    Until: 24:00,            !- Field 49
    0.0;                     !- Field 50

! Schedule Elevator
Schedule:Compact,
    BLDG_ELEVATORS,          !- Name
    Fraction,                !- Schedule Type Limits Name
    Through: 12/31,          !- Field 1
    For: Weekdays SummerDesignDay,  !- Field 2
    Until: 07:00,            !- Field 3
    0.0,                     !- Field 4
    Until: 08:00,            !- Field 5
    0.35,                    !- Field 6
    Until: 09:00,            !- Field 7
    0.69,                    !- Field 8
    Until: 10:00,            !- Field 9
    0.43,                    !- Field 10
    Until: 11:00,            !- Field 11
    0.37,                    !- Field 12
    Until: 12:00,            !- Field 13
    0.43,                    !- Field 14
    Until: 13:00,            !- Field 15
    0.58,                    !- Field 16
    Until: 14:00,            !- Field 17
    0.48,                    !- Field 18
    Until: 15:00,            !- Field 19
    0.37,                    !- Field 20
    Until: 16:00,            !- Field 21
    0.37,                    !- Field 22
    Until: 17:00,            !- Field 23
    0.46,                    !- Field 24
    Until: 18:00,            !- Field 25
    0.62,                    !- Field 26
    Until: 19:00,            !- Field 27
    0.12,                    !- Field 28
    Until: 20:00,            !- Field 29
    0.04,                    !- Field 30
    Until: 21:00,            !- Field 31
    0.04,                    !- Field 32
    Until: 24:00,            !- Field 33
    0.00,                    !- Field 34
    For: Saturday WinterDesignDay,  !- Field 35
    Until: 07:00,            !- Field 36
    0.0,                     !- Field 37
    Until: 08:00,            !- Field 38
    0.16,                    !- Field 39
    Until: 09:00,            !- Field 40
    0.14,                    !- Field 41
    Until: 10:00,            !- Field 42
    0.21,                    !- Field 43
    Until: 11:00,            !- Field 44
    0.18,                    !- Field 45
    Until: 12:00,            !- Field 46
    0.25,                    !- Field 47
    Until: 13:00,            !- Field 48
    0.21,                    !- Field 49
    Until: 14:00,            !- Field 50
    0.13,                    !- Field 51
    Until: 15:00,            !- Field 52
    0.08,                    !- Field 53
    Until: 16:00,            !- Field 54
    0.04,                    !- Field 55
    Until: 17:00,            !- Field 56
    0.05,                    !- Field 57
    Until: 18:00,            !- Field 58
    0.06,                    !- Field 59
    Until: 24:00,            !- Field 60
    0.00,                    !- Field 61
    For: Sunday Holidays AllOtherDays,  !- Field 62
    Until: 24:00,            !- Field 63
    0.0;                     !- Field 64

Schedule:Compact,
    INFIL_SCH,               !- Name
    fraction,                !- Schedule Type Limits Name
    Through: 12/31,          !- Field 1
    For: Weekdays SummerDesignDay,  !- Field 2
    Until: 06:00,            !- Field 3
    1.0,                     !- Field 4
    Until: 22:00,            !- Field 5
    0.0,                     !- Field 6
    Until: 24:00,            !- Field 7
    1.0,                     !- Field 8
    For: Saturday WinterDesignDay,  !- Field 9
    Until: 06:00,            !- Field 10
    1.0,                     !- Field 11
    Until: 18:00,            !- Field 12
    0.0,                     !- Field 13
    Until: 24:00,            !- Field 14
    1.0,                     !- Field 15
    For: Sunday Holidays AllOtherDays,  !- Field 16
    Until: 24:00,            !- Field 17
    1.0;                     !- Field 18

Schedule:Compact,
    INFIL_HALF_ON_SCH,       !- Name
    fraction,                !- Schedule Type Limits Name
    Through: 12/31,          !- Field 1
    For: Weekdays SummerDesignDay,  !- Field 2
    Until: 06:00,            !- Field 3
    1.0,                     !- Field 4
    Until: 22:00,            !- Field 5
    0.5,                     !- Field 6
    Until: 24:00,            !- Field 7
    1.0,                     !- Field 8
    For: Saturday WinterDesignDay,  !- Field 9
    Until: 06:00,            !- Field 10
    1.0,                     !- Field 11
    Until: 18:00,            !- Field 12
    0.5,                     !- Field 13
    Until: 24:00,            !- Field 14
    1.0,                     !- Field 15
    For: Sunday Holidays AllOtherDays,  !- Field 16
    Until: 24:00,            !- Field 17
    1.0;                     !- Field 18

Schedule:Compact,
    INFIL_QUARTER_ON_SCH,    !- Name
    fraction,                !- Schedule Type Limits Name
    Through: 12/31,          !- Field 1
    For: Weekdays SummerDesignDay,  !- Field 2
    Until: 06:00,            !- Field 3
    1.0,                     !- Field 4
    Until: 22:00,            !- Field 5
    0.25,                    !- Field 6
    Until: 24:00,            !- Field 7
    1.0,                     !- Field 8
    For: Saturday WinterDesignDay,  !- Field 9
    Until: 06:00,            !- Field 10
    1.0,                     !- Field 11
    Until: 18:00,            !- Field 12
    0.25,                    !- Field 13
    Until: 24:00,            !- Field 14
    1.0,                     !- Field 15
    For: Sunday Holidays AllOtherDays,  !- Field 16
    Until: 24:00,            !- Field 17
    1.0;                     !- Field 18

! Schedule Office Service Water Heating, ASHRAE 90.1-1989, Section 13
Schedule:Compact,
    BLDG_SWH_SCH,            !- Name
    Fraction,                !- Schedule Type Limits Name
    Through: 12/31,          !- Field 1
    For: Weekdays SummerDesignDay,  !- Field 2
    Until: 05:00,            !- Field 3
    0.05,                    !- Field 4
    Until: 06:00,            !- Field 5
    0.08,                    !- Field 6
    Until: 07:00,            !- Field 7
    0.07,                    !- Field 8
    Until: 08:00,            !- Field 9
    0.19,                    !- Field 10
    Until: 09:00,            !- Field 11
    0.35,                    !- Field 12
    Until: 10:00,            !- Field 13
    0.38,                    !- Field 14
    Until: 11:00,            !- Field 15
    0.39,                    !- Field 16
    Until: 12:00,            !- Field 17
    0.47,                    !- Field 18
    Until: 13:00,            !- Field 19
    0.57,                    !- Field 20
    Until: 14:00,            !- Field 21
    0.54,                    !- Field 22
    Until: 15:00,            !- Field 23
    0.34,                    !- Field 24
    Until: 16:00,            !- Field 25
    0.33,                    !- Field 26
    Until: 17:00,            !- Field 27
    0.44,                    !- Field 28